Version 4
SHEET 1 880 680
WIRE 560 -80 208 -80
WIRE 416 -32 16 -32
WIRE 208 32 208 -80
WIRE 16 80 16 -32
WIRE 64 80 16 80
WIRE -32 144 -144 144
WIRE 64 144 -32 144
WIRE 480 176 336 176
WIRE 704 176 480 176
WIRE 64 208 32 208
WIRE -32 224 -144 224
WIRE 32 224 32 208
WIRE 32 224 -32 224
WIRE 416 240 416 -32
WIRE 480 240 416 240
WIRE 560 240 560 -80
WIRE 480 256 480 240
WIRE 368 272 336 272
WIRE 416 272 416 240
WIRE 416 272 368 272
WIRE 560 272 560 240
WIRE -144 368 -144 304
WIRE 208 368 208 320
WIRE 208 368 -144 368
WIRE 480 368 480 336
WIRE 480 368 208 368
WIRE 560 368 560 352
WIRE 560 368 480 368
WIRE 208 384 208 368
FLAG 208 384 0
FLAG -32 224 V+in
FLAG -32 144 V-in
FLAG 480 176 vout
FLAG 368 272 vref
SYMBOL OpAmps\\AD8479 208 176 R0
SYMATTR InstName U1
SYMBOL voltage 560 256 R0
WINDOW 123 0 0 Left 0
WINDOW 39 0 0 Left 0
SYMATTR InstName V1
SYMATTR Value 5
SYMBOL Misc\\signal -144 240 R180
WINDOW 0 24 104 Left 2
WINDOW 3 24 16 Left 2
WINDOW 123 0 0 Left 0
WINDOW 39 0 0 Left 0
SYMATTR InstName V2
SYMATTR Value SINE(1.25 1.25 10)
SYMBOL voltage -144 208 R0
WINDOW 123 0 0 Left 0
WINDOW 39 0 0 Left 0
SYMATTR InstName V3
SYMATTR Value 20
SYMBOL res 576 224 R90
WINDOW 0 0 56 VBottom 2
WINDOW 3 32 56 VTop 2
SYMATTR InstName R1
SYMATTR Value 4.7k
SYMBOL res 496 352 R180
WINDOW 0 36 76 Left 2
WINDOW 3 36 40 Left 2
SYMATTR InstName R2
SYMATTR Value .1k
TEXT -320 408 Left 2 !.tran 1
