**$ENCRYPTED_LIB
**$INTERFACE
*$
* UCC21710
*****************************************************************************
*  (C) Copyright 2018 Texas Instruments Incorporated. All rights reserved.
*****************************************************************************
** This model is designed as an aid for customers of Texas Instruments.
** TI and its licensors and suppliers make no warranties, either expressed
** or implied, with respect to this model, including the warranties of 
** merchantability or fitness for a particular purpose.  The model is
** provided solely on an "as is" basis.  The entire risk as to its quality
** and performance is with the customer.
*****************************************************************************
*
** Released by: WEBENCH(R) Design Center, Texas Instruments Inc.
* Part: UCC21710
* Date: 14OCT2018
* Model Type: TRANSIENT
* Simulator: PSPICE
* Simulator Version: 16.2.0.P001
* EVM Order Number: UCC217XXQDWEVM-025
* EVM Users Guide: SLUUBX2
* Datasheet: SLUSD43 AUG2018
*
* Model Version: Final 1.00
*
*****************************************************************************
*
* Updates: 
* 
* Final 1.00
* Release to Web.
*
*****************************************************************************
*
* Model Usage Notes:
* The following features are modelled,
* 1. Propagation delay and UVLO. 
* 2. Over current limit and 2 level turn off.
* 3. External miller clamp
*
* The following features are not modelled,
* 1. Input and quiescent current of the part have not been modelled.
* 2. Temperature effects have not been modelled.
*****************************************************************************
.SUBCKT UCC21710 RDY IN+ IN- OUTH OUTL OC RST_N AIN APWM CLAMPI COM VCC
+ VDD VEE FAULT_N GND
$CDNENCSTART
eee8c5c7a2bc4b01f045f303678664e7916da0bae22e8cb0bba041dd67c69ce448ea70148a9ac1670c8926c1ac5057c8ccfcd77bf87ca9dc757ccc6c2842a64b
bbec2891233bc1662fbfcc2b872ff9466d9c585b0c6ee9cdc45e34cbed5a3fc0072471d3bb5412ec710f626c2faf14a662bbb90c8b38c8c681dc2013dbace8a7
647d5be9f4f502742fbfcc2b872ff9466d79bf17ef28b58510c81071793ed73185d2fd0e6ce0ea8e23b782b3d6a37df1849ecbc04354eee5ef3bda0f5efd74ec
d90f0f65fd6253be2fbfcc2b872ff946921dba09f72cf50cabe0469348612d24cb0b5996c0edb20552e0e93599adb80662d766f77596a54bc1149e604f91981f
da14a7400aadb77c1b335ff6669122159da2c38bb87a17fb62d7fc06aea0b62ba9a61298b140da58960b7bacedb152c706dc95a47ceb7157e16b7b2c4cf79094
afda5872d488931b2dce7963c39dbc2e2ee5e9af1d314cc0d70f366d92a2f64ff5366c99d162c09b60810f0da0b217ba75963efd3ee34e160ff63032dc4e41c4
55383805c37d9f78d24b51ea77d68888849ecbc04354eee50c244b33d66a4dbbf500007e998e98bc7de9f24dc503a6ba88a5e6dc5f17b834b8db8b843486ff7e
4b6085f201263667199f7cca1398adb5849ecbc04354eee50c244b33d66a4dbbf500007e998e98bc7de9f24dc503a6ba88a5e6dc5f17b834b8db8b843486ff7e
7eb2c91581ae154a957673035b26e32ba29b2092250a52ae435cdd09deb66fbef3b57c5d09cb71e049bcb2e9b7241eb4644126c9831a96bd090580afa748e1c6
6909ac037c267fff2fbfcc2b872ff946fdacd7fca42f6bba43bc72f108bb1ee4d052909510be79da23b782b3d6a37df1849ecbc04354eee5ef3bda0f5efd74ec
9fb0f1cde448e1649ed675755dc33397897438a084fe2fc15e88bc047e8e70fb9c6130a6298f9a49baa78b47fb353ab3a56fafa397f88c67ea00c3bdc7b7021a
a1642ab168aedbca706b807646b803711b625b68a08afdb80496f489096e849ad619dd670bb7f67bfd1db8aafe042eb48c362e584484cdf1c011787fa3555b32
6d0b83078a613cfb5a53a85576fe2a78b09e2116325bc9f13750407fd57f4228178635d5f3e62eb98c886cbeeac130c8f7471d7fe655c318961a53db9854b035
3e2f6d3b6fa1f79eef85993c6d8b8ea23f298165db38469c23d9a8f734716b483571ce187fec1d228203e0e1ea956d73545f30c4e1744d6d731a9d4178ace158
f2f0fc2622d326262fbfcc2b872ff9464b6c4a4a5ad927610de1475a4c0ae59c48ae466a51b5acc76594e2ecfdcb7f1425b0464fb1fc534433503a3ef0109b7a
75ad9e644fd39531ef18b0d89acfb7856c3dacfa0c921a7d5e88bc047e8e70fb9c6130a6298f9a49baa78b47fb353ab3a56fafa397f88c67ea00c3bdc7b7021a
7190d637bd9f14d42fbfcc2b872ff9465b32d04cc4597ebda0d8504e218d476b64f5a2de9aff0a4f62d7fc06aea0b62ba9a61298b140da586e24c791b2c656aa
e8bb0f9297c9d8e0af0e804c85ed032080a8ef45928f00f9c6f89fedb773c2fed93d1e68b9fa9c8c806778a75ac3d9ec8dcea2cdd2d3d5ccd573267e41263c5c
dd06c2baef735caed6dddf52256ed4bf25b0464fb1fc53449a08de44bbc7728564b540eb00fdf0635ffa3f6114769e39cd67bbc7c0a3cba30c4e200f3ed5d924
4b6085f201263667199f7cca1398adb5849ecbc04354eee50c244b33d66a4dbbf500007e998e98bc7de9f24dc503a6ba88a5e6dc5f17b834b8db8b843486ff7e
2d0088591b05d10a2fbfcc2b872ff94671bbae30be520044c45e34cbed5a3fc09942e97de7cf9095710f626c2faf14a662bbb90c8b38c8c681dc2013dbace8a7
414a26a5a66ac9882fbfcc2b872ff9467f239f21799d042f015934f1ef7a5d84ce67d8cf5776c80e32ac17fe85b66ba1fb39caa823c4ddd7c27a0fe47ba19b0a
4651b4c215cbe2b13a2b5f5ff1e80c1aef85993c6d8b8ea23f298165db38469c23d9a8f734716b483571ce187fec1d228203e0e1ea956d73e00c384fd1156622
8767f397bff4c3a731bbfa71d5efb6febc69f8b36f03e831ef85993c6d8b8ea23f298165db38469c23d9a8f734716b483571ce187fec1d22b16f8738b0734a04
7f606217ed12aece8dc6150e9752de3278255ef5a646415a324ef22af9d49dc14c8937ec395c6932df5026aaae7828ca23b782b3d6a37df149792ce1b1508815
93ddbfe68816d1a52fbfcc2b872ff94641fec59caabcacefbaa8b2b259f080f1c31873e152745360849ecbc04354eee50c244b33d66a4dbbf73fae6ac3206d12
fac11102dd3c69cb1b335ff666912215865dad0fbac3680b959b84f754dee25ca9a61298b140da58960b7bacedb152c706dc95a47ceb7157e16b7b2c4cf79094
2a6741d6d2b54d862fbfcc2b872ff946c6d179a101ce83202231bf27ee079c8260479c4878b1fc9575963efd3ee34e16b032015482838020ac6ea58c6af07d1d
d24b51ea77d68888849ecbc04354eee50c244b33d66a4dbbf500007e998e98bc7de9f24dc503a6ba88a5e6dc5f17b83469be4c2603c151c836dce5663cd3e059
4b6085f201263667199f7cca1398adb5849ecbc04354eee50c244b33d66a4dbbf500007e998e98bc7de9f24dc503a6ba88a5e6dc5f17b834b8db8b843486ff7e
dabf9f8a77912bd38dc6150e9752de32eca95d5eb896df53b53ca7821c26befe828656914aa132d23c991a04052eba44644126c9831a96bd090580afa748e1c6
72ba55856cbcd98e706b807646b80371dd7837100a6937b67208a85e1aefd30a6c0130c22f4732ec07d39af4cdef65cf2c88b041d39d7c07cb914f93b6a6a833
d7aa3c87f41032aa8675a01b2db95be7ef85993c6d8b8ea23f298165db38469c23d9a8f734716b483571ce187fec1d228203e0e1ea956d73e00c384fd1156622
2c5a2c747fef20f91b335ff666912215dc5b0d77311e566ab387f8fb02534fa5b026ebbd317e2921ef85993c6d8b8ea23f298165db38469ceaa2b766743e0c42
ecc3f5f36552d5e82fbfcc2b872ff946860b5ad42ea76d8483bbe440a5af21e8bb369b8d063702ae5911b2e9db277617a5257eba54077ab592c07404f9e69835
b0d130b91dfdd860199f7cca1398adb5849ecbc04354eee50c244b33d66a4dbbf500007e998e98bc7de9f24dc503a6ba88a5e6dc5f17b834b8db8b843486ff7e
a3f576b848cd34f9a8e8388dc297d93fcd31a8598d8f800cec4c51c47cf3086d36806a8e381bf9a0a56fafa397f88c675c2295ba4f8cc1bbff9973046a95945d
24f0f9c882e5fb812fbfcc2b872ff94693d45994cfc4b6c13af2123e007c0d812e968b607cffadfd6baa4c351fc5e3ad60a188d940e604c1ecf22f43cd602b91
e8a348f0e7b4fe0d67d2eff95da562742d5ef9d32868004b44e333997b15e8ce7748fc45cba3d93a4bfa0b9b77f1c6aa722897c2aec8e26dc1a49d26604e4726
4b6085f201263667199f7cca1398adb5849ecbc04354eee50c244b33d66a4dbbf500007e998e98bc7de9f24dc503a6ba88a5e6dc5f17b834b8db8b843486ff7e
ec9f3f936541bab6a5cc3983299df1d40ec961a61643f234865dad0fbac3680b74fc1eb986bb3c7468bdd838ca9fa1397ddce833e92cdd03d9fcab236b0acd2d
ba4362ab39c0751b2fbfcc2b872ff9467a9b214417ca2dd58cdb68dcaa475f8ef9fded3f9bb16d57a694cc3c18def62cbc8010599de6f88b7846daed4c599468
4f52237e05fcdaf4f953a9d5eb49c505e847dda77d5f9443a56fafa397f88c675c2295ba4f8cc1bb5adb858d2828d49d810605beddb92774e06ea8bbd6ea5ad0
4b6085f201263667199f7cca1398adb5849ecbc04354eee50c244b33d66a4dbbf500007e998e98bc7de9f24dc503a6ba88a5e6dc5f17b834b8db8b843486ff7e
85286009b55f29b58dc6150e9752de32b3c65c9f439032d5ff7c1a1993fe96b735161516491003e124fdfd9bb2e10b07a9a61298b140da586e24c791b2c656aa
d83cc93789db82dd2fbfcc2b872ff94652c3dc41d1889a4e37a8d03794d8d3c2c8a99b6f463dddcfe758cb6a7223174462bbb90c8b38c8c681dc2013dbace8a7
efaf3b99682e31791b335ff666912215c740f870573091e14a9ba95a26c31e7e3f1a16f706f2f3e241097083f6b3a2092d5ef9d32868004b18f627ad5f3efe40
44b530af580b18112fbfcc2b872ff946e912c1ec8a6f47390a9ae901ff9ffb6bd5014216398d2bef042f0c0c78bb0deb2d5ef9d32868004b18f627ad5f3efe40
90fef86c41c283402fbfcc2b872ff94648088ec8ab19cdb4d67873ef8641282448ae466a51b5acc76594e2ecfdcb7f1425b0464fb1fc534433503a3ef0109b7a
de0fab203d3825e12fbfcc2b872ff946ac1e86fe8cdaa0e7abe0469348612d245044313ac11f205775963efd3ee34e16b032015482838020ac6ea58c6af07d1d
d24b51ea77d68888849ecbc04354eee50c244b33d66a4dbbf500007e998e98bc7de9f24dc503a6ba88a5e6dc5f17b83469be4c2603c151c836dce5663cd3e059
4b6085f201263667199f7cca1398adb5849ecbc04354eee50c244b33d66a4dbbf500007e998e98bc7de9f24dc503a6ba88a5e6dc5f17b834b8db8b843486ff7e
e318e13d97b8992b2fbfcc2b872ff9463f6b9857d5c059018cdb68dcaa475f8e0d2c7a253890779cfb2351045913e652849ecbc04354eee5ef3bda0f5efd74ec
9ab82d9ea597b985737baa5b50665ed1064a3980ee12b04d3a22adcba3ba46be063ea727d3c4667de96b477799a9dd8cc0acce0dce8b925533c80e428ad643d7
88b96b7c831faa4a41097083f6b3a2092d5ef9d32868004b44e333997b15e8ce7748fc45cba3d93a4bfa0b9b77f1c6aa722897c2aec8e26dc1a49d26604e4726
05b15a3398eaa1652637e9cac2aa5cea0e753b1abe96382d14116b5b1ff5095d849ecbc04354eee50c244b33d66a4dbbf500007e998e98bc015fc2fd88f4f8d8
f4ecd5ab12a477ab2fbfcc2b872ff9465bcdb0a5a2d83b3b7ab40028231726476d0295b9842d9410ed2587332fdc04f78dcea2cdd2d3d5ccd573267e41263c5c
dd06c2baef735caed6dddf52256ed4bf25b0464fb1fc53449a08de44bbc7728564b540eb00fdf0635ffa3f6114769e39cd67bbc7c0a3cba30c4e200f3ed5d924
4b6085f201263667199f7cca1398adb5849ecbc04354eee50c244b33d66a4dbbf500007e998e98bc7de9f24dc503a6ba88a5e6dc5f17b834b8db8b843486ff7e
52e83915d0bd76c72fbfcc2b872ff946fdacd7fca42f6bba43bc72f108bb1ee44fdcb7737b1760036594e2ecfdcb7f1425b0464fb1fc534433503a3ef0109b7a
bd975d3892196de2957673035b26e32ba29b2092250a52ae435cdd09deb66fbe69af0e23dbe23327478a87bc5b8e6cf9b09e2116325bc9f16afbfd22f9fa188a
0dea85bdd2f61705a8e8388dc297d93f3725e270713a172aec4c51c47cf3086d76617f42cd5d956ba56fafa397f88c675c2295ba4f8cc1bbff9973046a95945d
853ff2272e3bbdf55aff51a4f4c1c48ba7e54460e5367ecbc507a53192ef1ab2fdd3e9a1695ea2c2d2bbd7e847d638e1e776e9b255bda08c8cc849879194c8ab
81fdac20e6e41a86b09e2116325bc9f13750407fd57f4228178635d5f3e62eb98c886cbeeac130c8f7471d7fe655c318ea6c9b2cfbf1be3472fb2d9d176478d4
4b6085f201263667199f7cca1398adb5849ecbc04354eee50c244b33d66a4dbbf500007e998e98bc7de9f24dc503a6ba88a5e6dc5f17b834b8db8b843486ff7e
1b4ca22bf709f17a8dc6150e9752de32d1add0b4efd85104bbcea70109a5aa67828656914aa132d23c991a04052eba44644126c9831a96bd090580afa748e1c6
746d72f67403db612fbfcc2b872ff9468553a9f394c06ff38c1649287ff46321f3816228c9090f95b09e2116325bc9f13750407fd57f4228924dfae73c7f7755
1b2f60837da8edf92fbfcc2b872ff946c3192e907ef4cbb378255ef5a646415aa9eb5e16c926b612c9322890ded6647ba034e7b2a9c1fc6de5bb48686dc60342
c069baa26a118214a89c66c1cba372feb09e2116325bc9f13750407fd57f4228178635d5f3e62eb98c886cbeeac130c8f7471d7fe655c318961a53db9854b035
3e2f6d3b6fa1f79eef85993c6d8b8ea23f298165db38469c23d9a8f734716b483571ce187fec1d228203e0e1ea956d73545f30c4e1744d6d731a9d4178ace158
43b4dd3423162baba5cc3983299df1d48c1649287ff4632145c45e7524bba8a1aa2c4b6e37b2e6834ac0d4f9a6149b30843e1705d31ec872e98657eb75da56c1
d2c1aec57b7bef712fbfcc2b872ff94685673a45347ae2ba87ca96418f18353556a6e3b9a518ff0a2d5ef9d32868004b44e333997b15e8cec1f0d95338ccd143
0fadabb7fbaa7c572dce7963c39dbc2e9840bce52ffccdc5a2ef82e5affe9e25d2bbd7e847d638e1e776e9b255bda08c55383805c37d9f780c138f656e983247
31bbfa71d5efb6febc69f8b36f03e831ef85993c6d8b8ea23f298165db38469c23d9a8f734716b483571ce187fec1d228203e0e1ea956d73e00c384fd1156622
9d1e4dec579e1eec2dce7963c39dbc2ecb5864eff6d87ab8d3ce4bd3ed0f058662d766f77596a54b25b0464fb1fc53449a08de44bbc77285df4b6226e34a77b7
fffc35be53c286bc957673035b26e32baafe4af04c14fd9692587e98bf4d80d5c99885fc605c73edb09e2116325bc9f13750407fd57f4228924dfae73c7f7755
85c99bfa213cda3a706b807646b803718d13de9daaf6e1cd94aebb18efc1b73c8f0449b81faaf6f7c2fa8b4db8d47dd8c297b5178c25c3dd0f4bf12c57502707
4bc70d375511759a0614b4de3125c448644126c9831a96bda56fafa397f88c675c2295ba4f8cc1bb5adb858d2828d49d810605beddb92774e06ea8bbd6ea5ad0
02673b7763e121d22d5ef9d32868004b44e333997b15e8ce7748fc45cba3d93a4bfa0b9b77f1c6aa722897c2aec8e26d60b02833fb20984af6f3cc135734f561
62dbcc658e718cc62fbfcc2b872ff9467b47688eedc1d2f1fbabff9a68643159ec75d3c34710b89a589af0812576e61b8318958aa75d4556dd0a70f33e2447ea
35a46daa422b278447158635b18b6659ef85993c6d8b8ea23f298165db38469c23d9a8f734716b483571ce187fec1d228203e0e1ea956d73e00c384fd1156622
4b6085f201263667199f7cca1398adb5849ecbc04354eee50c244b33d66a4dbbf500007e998e98bc7de9f24dc503a6ba88a5e6dc5f17b834b8db8b843486ff7e
0805c9bc4a8c6e82cf6504815cc4f1870506d39874f0b6e9ea89bc757618c2252c6ae38325f3cd1495d7fcca0b5012ccef85993c6d8b8ea2490caf833655a7ea
dfa579b8a0c1c7418dc6150e9752de329479d49e2bc195f42c51f0f77d6b831b23df78be1403f758ef85993c6d8b8ea23f298165db38469ceaa2b766743e0c42
b8a056f96917d5d52fbfcc2b872ff946ee901d09900a0c2f8c1649287ff463213f1e69ebe50c47c5f2b0acb378d528f8a9a61298b140da586e24c791b2c656aa
c269cca5b760f2772fbfcc2b872ff946a376a50b1d263e7c3dd4881dff7166186c92b11e59285e0275d9b546badcd55525b0464fb1fc534433503a3ef0109b7a
f6c78ff5336203022dce7963c39dbc2e2ee5e9af1d314cc0d193774fbbdf151cfa460eccc75cda6d88b96b7c831faa4a4f52237e05fcdaf47c93d60cb32b1cf5
f1b6bc29d103b9152185e15df06a5e8f25b0464fb1fc53449a08de44bbc7728564b540eb00fdf0635ffa3f6114769e39cd67bbc7c0a3cba30c4e200f3ed5d924
fdef114ad4b4ece48dc6150e9752de3256305864db7d63587b120c276d2783e635161516491003e124fdfd9bb2e10b07a9a61298b140da586e24c791b2c656aa
89589ab18ff48e9d957673035b26e32b85788bc6c99e49dda94c4513e5ef610e1229c66ff1118ed9fbf5e4ff206dcd0f8f26dd77f7410485c27a0fe47ba19b0a
4651b4c215cbe2b13a2b5f5ff1e80c1aef85993c6d8b8ea23f298165db38469c23d9a8f734716b483571ce187fec1d228203e0e1ea956d73e00c384fd1156622
8767f397bff4c3a731bbfa71d5efb6febc69f8b36f03e831ef85993c6d8b8ea23f298165db38469c23d9a8f734716b483571ce187fec1d22b16f8738b0734a04
8967063a3597cd7e1b335ff666912215cc24492ebef282f41c55013818ff2862a9a61298b140da58960b7bacedb152c706dc95a47ceb7157e16b7b2c4cf79094
bf2f185e05c9b3c28dc6150e9752de325a750826be88b731414bb31d4e46608762d766f77596a54b25b0464fb1fc53449a08de44bbc77285df4b6226e34a77b7
ff1943ffb045fb808a14b3e1c36560bf218548857175e862bd2bbda1ad0182836d8a505c918c3d328dcea2cdd2d3d5cc9783ae8e4821c68fb9549840541e7e65
d6dddf52256ed4bf25b0464fb1fc53449a08de44bbc7728564b540eb00fdf0635ffa3f6114769e39cd67bbc7c0a3cba30ad6f698b3107b3baf4c8467854ab1bd
4b6085f201263667199f7cca1398adb5849ecbc04354eee50c244b33d66a4dbbf500007e998e98bc7de9f24dc503a6ba88a5e6dc5f17b834b8db8b843486ff7e
e310e858b3ec196c2fbfcc2b872ff946ec0ebf450d9ed3e78c1649287ff463212bee6f6f9b3e7f39f2b0acb378d528f8a9a61298b140da586e24c791b2c656aa
4a63f3428f6ad8238dc6150e9752de32664f7e25b9c443809b00767662f453ffbf1ee911780421dd62bbb90c8b38c8c6fd9a2becc130d00e3c70b925a8f40333
7b6e6e5476dfd9eb2fbfcc2b872ff946b3555b9562c5178d10c81071793ed7311c2684340d822a42f987d7af6272cb3a8dcea2cdd2d3d5ccd573267e41263c5c
dd06c2baef735caed6dddf52256ed4bf25b0464fb1fc53449a08de44bbc7728564b540eb00fdf0635ffa3f6114769e39cd67bbc7c0a3cba30c4e200f3ed5d924
4b6085f201263667199f7cca1398adb5849ecbc04354eee50c244b33d66a4dbbf500007e998e98bc7de9f24dc503a6ba88a5e6dc5f17b834b8db8b843486ff7e
890531efd3d31edd1b335ff666912215ed1b3e96cecb33682a1720128af6b976849ecbc04354eee50c244b33d66a4dbbf500007e998e98bc015fc2fd88f4f8d8
e2810633117493ed2fbfcc2b872ff9468db62d1204bd871943bc72f108bb1ee477d8da71943c149c75963efd3ee34e16b032015482838020ac6ea58c6af07d1d
d24b51ea77d68888849ecbc04354eee50c244b33d66a4dbbf500007e998e98bc7de9f24dc503a6ba88a5e6dc5f17b83469be4c2603c151c836dce5663cd3e059
4b6085f201263667199f7cca1398adb5849ecbc04354eee50c244b33d66a4dbbf500007e998e98bc7de9f24dc503a6ba88a5e6dc5f17b834b8db8b843486ff7e
963c7117cf3884802fbfcc2b872ff94676611f65a90fa196e761e461376cf5fac8040ceaba6fdbf875963efd3ee34e16b032015482838020ac6ea58c6af07d1d
d24b51ea77d68888849ecbc04354eee50c244b33d66a4dbbf500007e998e98bc7de9f24dc503a6ba88a5e6dc5f17b83469be4c2603c151c836dce5663cd3e059
4b6085f201263667199f7cca1398adb5849ecbc04354eee50c244b33d66a4dbbf500007e998e98bc7de9f24dc503a6ba88a5e6dc5f17b834b8db8b843486ff7e
0020c59bab3232f040fc25baf84dde5f18380d2b4da18c67349f4ba512d273d5b09e2116325bc9f13750407fd57f4228178635d5f3e62eb9fc80fab0ea9bbdfb
48a94d11d238250f28fc081f3ed3d0126f36c7eb4905b7d6847d602e98a3fb7ab387f8fb02534fa516953a2344697bb5b38c026bf63ce2132286150040758a84
553a238e004b7e402fbfcc2b872ff9461e85cefb6fe3d5eaeca95d5eb896df53dca5fdc19c47fc2175963efd3ee34e16b032015482838020ac6ea58c6af07d1d
d24b51ea77d68888849ecbc04354eee50c244b33d66a4dbbf500007e998e98bc7de9f24dc503a6ba88a5e6dc5f17b83469be4c2603c151c836dce5663cd3e059
4b6085f201263667199f7cca1398adb5849ecbc04354eee50c244b33d66a4dbbf500007e998e98bc7de9f24dc503a6ba88a5e6dc5f17b834b8db8b843486ff7e
b616be49243ffd49737baa5b50665ed1c2069cf448b412447ec83ba61b81f8b00a4232c22fafba63754bc8374a14b5ffb032015482838020d38aff4e12555a5d
01680272e72f56552fbfcc2b872ff946b8370d0323f988e367d8f08cca0bf7b629f9517a834b2fd8849ecbc04354eee50c244b33d66a4dbbf73fae6ac3206d12
09a8b9f6e43f2b429ed675755dc333978dea2c46f3d140776ab7223216c3f9106af9d5413214ba985911b2e9db277617a5257eba54077ab592c07404f9e69835
b0d130b91dfdd860199f7cca1398adb5849ecbc04354eee50c244b33d66a4dbbf500007e998e98bc7de9f24dc503a6ba88a5e6dc5f17b834b8db8b843486ff7e
19e33d23de168a1e2fbfcc2b872ff94672d539a07b7b75f7015934f1ef7a5d844e940a9ba2a7458975963efd3ee34e16b032015482838020ac6ea58c6af07d1d
d24b51ea77d68888849ecbc04354eee50c244b33d66a4dbbf500007e998e98bc7de9f24dc503a6ba88a5e6dc5f17b83469be4c2603c151c836dce5663cd3e059
4b6085f201263667199f7cca1398adb5849ecbc04354eee50c244b33d66a4dbbf500007e998e98bc7de9f24dc503a6ba88a5e6dc5f17b834b8db8b843486ff7e
0c2eaeae217507fc2dce7963c39dbc2e064b95da4280df7ebb369b8d063702ae5911b2e9db277617a5257eba54077ab581fdac20e6e41a86838c94ce159e543a
199f7cca1398adb5849ecbc04354eee50c244b33d66a4dbbf500007e998e98bc7de9f24dc503a6ba88a5e6dc5f17b83469be4c2603c151c836dce5663cd3e059
29d401b5a70ce7fe2fbfcc2b872ff9467a9b214417ca2dd5984a304ee9d5ea16b96b7ab2d61f3290ef85993c6d8b8ea23f298165db38469ceaa2b766743e0c42
10f855d5310eefcb706b807646b80371b722024596f8437f14dcbc063689578f625444fad33d97bb40e5a609e66884fdc116285f52f4fe058f03faff22254705
5b1b90a566ca0819eea1f6a42b1b9fbcd90a3b3e65aeda99644126c9831a96bda56fafa397f88c675c2295ba4f8cc1bb5adb858d2828d49d38bfb07f46010312
29f5b531616e4d17e71f71e187584171a56fafa397f88c675c2295ba4f8cc1bb5adb858d2828d49d810605beddb92774890e4ef69d7a34598b31517c614d4d5f
014e045ee70defc2957673035b26e32b55c344a5af98b592fc3ed3956feaeeef4621f2523911c190b09e2116325bc9f13750407fd57f4228924dfae73c7f7755
cbab27061d928897957673035b26e32b85788bc6c99e49dd5dffefadd2f2cec2c969d7ebc2b05530a9a61298b140da58960b7bacedb152c7b81cb45173192878
c52f13a938c0e5f41b335ff66691221514807c2c365f2eeb1c55013818ff2862a9a61298b140da58960b7bacedb152c706dc95a47ceb7157e16b7b2c4cf79094
75b826d52addd458fb6c4a85838011276edd4316af041db7349f4ba512d273d5b09e2116325bc9f13750407fd57f4228178635d5f3e62eb9fc80fab0ea9bbdfb
174ba900441ebf942fbfcc2b872ff9464f26ff69332639e21b625b68a08afdb88c5c3c308504d7c023b782b3d6a37df1849ecbc04354eee5ef3bda0f5efd74ec
0ba996646f66c582706b807646b803711b625b68a08afdb80496f489096e849a48b9045e0cefb735cbf6c51695b159843bd0fcf690afeb16bd8adeab2c52b838
e73070a45f1d549ca9a61298b140da58960b7bacedb152c706dc95a47ceb71575bcdc589f57a56259f2143c275036c4282389e107694d6be43153afbee04ca0a
f52dd7baa8112cfd2fbfcc2b872ff9469821850be938a03cfcd8d3616c0de850b96b7ab2d61f3290ef85993c6d8b8ea23f298165db38469ceaa2b766743e0c42
44e13b054a441f031b335ff6669122159f80b45f93928332b087b866659766fc2d5ef9d32868004b44e333997b15e8ce7748fc45cba3d93a5e13bf3f089e4ad8
3edd295a9ae8437f8dc6150e9752de320a9ae901ff9ffb6b058dc5ae675c58c7b09e2116325bc9f13750407fd57f4228178635d5f3e62eb9fc80fab0ea9bbdfb
e6aabc26048d8f3f2531ce9df5eb060360da5613339252a228ba6462ca532e07b032015482838020b09e2116325bc9f13750407fd57f4228924dfae73c7f7755
6c7828660b27a1032fbfcc2b872ff9467f239f21799d042f10c81071793ed7319382464400491e4075963efd3ee34e16b032015482838020ac6ea58c6af07d1d
d24b51ea77d68888849ecbc04354eee50c244b33d66a4dbbf500007e998e98bc7de9f24dc503a6ba88a5e6dc5f17b83469be4c2603c151c836dce5663cd3e059
4b6085f201263667199f7cca1398adb5849ecbc04354eee50c244b33d66a4dbbf500007e998e98bc7de9f24dc503a6ba88a5e6dc5f17b834b8db8b843486ff7e
c8e6a88327237f8a2fbfcc2b872ff946bf4a04cecaf127d110c81071793ed731d70c30033dc67c1975963efd3ee34e16b032015482838020ac6ea58c6af07d1d
d24b51ea77d68888849ecbc04354eee50c244b33d66a4dbbf500007e998e98bc7de9f24dc503a6ba88a5e6dc5f17b83469be4c2603c151c836dce5663cd3e059
4b6085f201263667199f7cca1398adb5849ecbc04354eee50c244b33d66a4dbbf500007e998e98bc7de9f24dc503a6ba88a5e6dc5f17b834b8db8b843486ff7e
d299e208fcbce50a2fbfcc2b872ff946b6034d259d20d474476668db823eb6bf6ecf55e85a11b7c5849ecbc04354eee50c244b33d66a4dbbf73fae6ac3206d12
8b9264d0565f1d611b335ff6669122158ae120366584c7f262d7fc06aea0b62ba9a61298b140da58960b7bacedb152c706dc95a47ceb7157e16b7b2c4cf79094
a9096e8a76f0e3522fbfcc2b872ff946abd2e9fb427d32789479d49e2bc195f4c4eca06f59a2e33d23b782b3d6a37df1849ecbc04354eee5ef3bda0f5efd74ec
6554c308793965aae027424c7d74e7f2de8f7ea8bc0e6370b722024596f8437f067e4c25a07de2e72d5ef9d32868004b44e333997b15e8cec1f0d95338ccd143
1f59022967e7ca7b1b335ff666912215ccfeeacb987438b22bfa301feb760d78ae885ae8b480f51fbec0e7cf2c1138b0d2bbd7e847d638e106ca5c9d845745cf
a5257eba54077ab581fdac20e6e41a86b09e2116325bc9f13750407fd57f4228178635d5f3e62eb98c886cbeeac130c8f7471d7fe655c318961a53db9854b035
4b6085f201263667199f7cca1398adb5849ecbc04354eee50c244b33d66a4dbbf500007e998e98bc7de9f24dc503a6ba88a5e6dc5f17b834b8db8b843486ff7e
0b9a602fcd07d3882fbfcc2b872ff9466d79bf17ef28b58510c81071793ed731a80e00aabd1301bf6594e2ecfdcb7f1425b0464fb1fc534433503a3ef0109b7a
5e95fc5764da75612fbfcc2b872ff946f0fd030d733511ea56305864db7d6358adac63eaa645ae3d6594e2ecfdcb7f1425b0464fb1fc534433503a3ef0109b7a
875f1a4022c371a22fbfcc2b872ff94624085c8462d3ea3bd93d1e68b9fa9c8c02f1d22b3403a2986baa4c351fc5e3ad60a188d940e604c1ecf22f43cd602b91
e8a348f0e7b4fe0d67d2eff95da562742d5ef9d32868004b44e333997b15e8ce7748fc45cba3d93a4bfa0b9b77f1c6aa722897c2aec8e26dc1a49d26604e4726
4b6085f201263667199f7cca1398adb5849ecbc04354eee50c244b33d66a4dbbf500007e998e98bc7de9f24dc503a6ba88a5e6dc5f17b834b8db8b843486ff7e
b1679a57ff86c862957673035b26e32baafe4af04c14fd96d092728115cbbaf367fd777299bd03f3fbf5e4ff206dcd0f8f26dd77f7410485c27a0fe47ba19b0a
4651b4c215cbe2b13a2b5f5ff1e80c1aef85993c6d8b8ea23f298165db38469c23d9a8f734716b483571ce187fec1d228203e0e1ea956d73e00c384fd1156622
8767f397bff4c3a731bbfa71d5efb6febc69f8b36f03e831ef85993c6d8b8ea23f298165db38469c23d9a8f734716b483571ce187fec1d22b16f8738b0734a04
ac89415698df45d3706b807646b80371cc9a392bd21aea2a8fe1aec0698a9b90625444fad33d97bbb0080dae00a4ac8077f27408de51efda59e1da9e48aea040
420a07cac44ba8667aba5c027f926729b09e2116325bc9f13750407fd57f4228178635d5f3e62eb98c886cbeeac130c8f7471d7fe655c318961a53db9854b035
3e2f6d3b6fa1f79eef85993c6d8b8ea23f298165db38469c23d9a8f734716b483571ce187fec1d228203e0e1ea956d73545f30c4e1744d6d731a9d4178ace158
cb17263c67ab68282fbfcc2b872ff946929368a2cb1dc732596cb31348b86d90644126c9831a96bda56fafa397f88c675c2295ba4f8cc1bbff9973046a95945d
c3618eb1b9a07e6e957673035b26e32bef50ebf782b66369435cdd09deb66fbe0619932f7441a17949bcb2e9b7241eb4644126c9831a96bd090580afa748e1c6
4e87646b2b53a5932fbfcc2b872ff946bd521400db548504eba44c66307e461335161516491003e124fdfd9bb2e10b07a9a61298b140da586e24c791b2c656aa
632bb1c886c863792fbfcc2b872ff946cf8a839f2a638310f7221e6e4fb2737239ce0e626a1de64675963efd3ee34e16b032015482838020ac6ea58c6af07d1d
d24b51ea77d68888849ecbc04354eee50c244b33d66a4dbbf500007e998e98bc7de9f24dc503a6ba88a5e6dc5f17b83469be4c2603c151c836dce5663cd3e059
4b6085f201263667199f7cca1398adb5849ecbc04354eee50c244b33d66a4dbbf500007e998e98bc7de9f24dc503a6ba88a5e6dc5f17b834b8db8b843486ff7e
0f1e24fedbd434832fbfcc2b872ff946cea90e89b25f9683b4233ba190bbe9a2fc713f66235688d0b32eae440ae09a4788b96b7c831faa4af2d5e5299905ab7b
a624e1e92b7848e5157dcbb6421b1256a9a61298b140da58960b7bacedb152c706dc95a47ceb71575bcdc589f57a56259f2143c275036c420d282a1af9732497
4b6085f201263667199f7cca1398adb5849ecbc04354eee50c244b33d66a4dbbf500007e998e98bc7de9f24dc503a6ba88a5e6dc5f17b834b8db8b843486ff7e
c55758e2f7145b402fbfcc2b872ff9460ee1e538ae3ad3bbd8b7713ef93161417b47688eedc1d2f16baa4c351fc5e3ad60a188d940e604c1ecf22f43cd602b91
e8a348f0e7b4fe0d67d2eff95da562742d5ef9d32868004b44e333997b15e8ce7748fc45cba3d93a4bfa0b9b77f1c6aa722897c2aec8e26dc1a49d26604e4726
4b6085f201263667199f7cca1398adb5849ecbc04354eee50c244b33d66a4dbbf500007e998e98bc7de9f24dc503a6ba88a5e6dc5f17b834b8db8b843486ff7e
eb41cf05998d1f4c2fbfcc2b872ff946f352e64f5f0c9770c3beba497888bc428a559fea382c8ba075963efd3ee34e16b032015482838020ac6ea58c6af07d1d
d24b51ea77d68888849ecbc04354eee50c244b33d66a4dbbf500007e998e98bc7de9f24dc503a6ba88a5e6dc5f17b83469be4c2603c151c836dce5663cd3e059
4b6085f201263667199f7cca1398adb5849ecbc04354eee50c244b33d66a4dbbf500007e998e98bc7de9f24dc503a6ba88a5e6dc5f17b834b8db8b843486ff7e
4615b81dab7c61e5737baa5b50665ed1064a3980ee12b04db448c629eaf3483aa2ca9ffcdd193bf081dbf6243503a52aaeb51220b615622be54b9041c71a5639
f3af718289bceea06dd30c81dfdede94f6c57157062f5a99a56fafa397f88c675c2295ba4f8cc1bb5adb858d2828d49d810605beddb92774e06ea8bbd6ea5ad0
3e2f6d3b6fa1f79eef85993c6d8b8ea23f298165db38469c23d9a8f734716b483571ce187fec1d228203e0e1ea956d73545f30c4e1744d6d731a9d4178ace158
1e48f80b52cf52581b335ff666912215ba20413aef51f7973928849e85851fe29c73859cd92b5a8bb58626e19d95465c88b96b7c831faa4af2d5e5299905ab7b
a68ba69006c80e09157dcbb6421b1256a9a61298b140da58960b7bacedb152c706dc95a47ceb71575bcdc589f57a56259f2143c275036c420d282a1af9732497
4b6085f2012636678ee5eab1ce21437bd80d314f38da2845b09e2116325bc9f13750407fd57f4228178635d5f3e62eb98c886cbeeac130c8c7f737744d4408f0
b3832ed943a5be67b82ace5292ece4481176541374ca056fe8802145f835715516953a2344697bb5b38c026bf63ce2130e1273987b4e1f9d9512d668a2e5f286
b5e23ea96e90c8058a14b3e1c36560bf218548857175e8627468d2753c5723db8dcea2cdd2d3d5cc9783ae8e4821c68fe8a348f0e7b4fe0da8576cb04709ca0d
933cef0b2eff3dcfe4c9ae8f3d6491d6a9a61298b140da58960b7bacedb152c706dc95a47ceb71575bcdc589f57a56259f2143c275036c420d282a1af9732497
bbad809518f59e622fbfcc2b872ff9469c82e8c312639562510372423bf2116ddc4d3e8d456b5b6488b96b7c831faa4a4f52237e05fcdaf47c93d60cb32b1cf5
f1b6bc29d103b9152185e15df06a5e8f25b0464fb1fc53449a08de44bbc7728564b540eb00fdf0635ffa3f6114769e39cd67bbc7c0a3cba30c4e200f3ed5d924
2c1bb2fe620ae9ba2fbfcc2b872ff94614ecf41b8cb9835c4783dd0ba3749a3000877b91cd4279f39fba36ed3bced89086316f76333b6c888dbdf3f8bb867b5e
48e37a81bb5c1d691eeaa2b9b7be1eaae71f71e187584171a56fafa397f88c675c2295ba4f8cc1bb5adb858d2828d49d810605beddb92774e06ea8bbd6ea5ad0
93d3808648446fd7141b75064c94a6ada83646720ccba309c4b6ee13136b11e8644126c9831a96bda56fafa397f88c675c2295ba4f8cc1bbff9973046a95945d
c88f682c7b5579412fbfcc2b872ff9469821850be938a03c2231bf27ee079c826bd374ebfa45ff04cc9be48812cd53e0bc8010599de6f88b7846daed4c599468
4f52237e05fcdaf4f953a9d5eb49c505e847dda77d5f9443a56fafa397f88c675c2295ba4f8cc1bb5adb858d2828d49d810605beddb92774e06ea8bbd6ea5ad0
4b6085f201263667199f7cca1398adb5849ecbc04354eee50c244b33d66a4dbbf500007e998e98bc7de9f24dc503a6ba88a5e6dc5f17b834b8db8b843486ff7e
a8c1f15a746db4f62fbfcc2b872ff946784eacc1734ef8005e553360e43c5e7f634fa8caade410196594e2ecfdcb7f1425b0464fb1fc534433503a3ef0109b7a
18156f964359e0e39ed675755dc33397df09154d67890fc711072b74bdac9ce624fdfd9bb2e10b07a9a61298b140da58960b7bacedb152c7b81cb45173192878
0bfb907a9a96039d29e825b94f56ec707b8e822c5b0734ce349f4ba512d273d5b09e2116325bc9f13750407fd57f4228178635d5f3e62eb9fc80fab0ea9bbdfb
59b6ff1c3134b7b51b335ff666912215891b38ce5e8f4c46a42853c1a08167c62c6ae38325f3cd1495d7fcca0b5012ccef85993c6d8b8ea2490caf833655a7ea
43f61b2027fee7df957673035b26e32bb535ed5dfd3415afc02edd44d60eccb00dbabc092804a2e2b09e2116325bc9f13750407fd57f4228924dfae73c7f7755
0dec616601e920012fbfcc2b872ff946b3555b9562c5178dd67873ef86412824b465091d76ac10fc75963efd3ee34e16b032015482838020ac6ea58c6af07d1d
d24b51ea77d68888849ecbc04354eee50c244b33d66a4dbbf500007e998e98bc7de9f24dc503a6ba88a5e6dc5f17b83469be4c2603c151c836dce5663cd3e059
4b6085f201263667199f7cca1398adb5849ecbc04354eee50c244b33d66a4dbbf500007e998e98bc7de9f24dc503a6ba88a5e6dc5f17b834b8db8b843486ff7e
617a4aae84fbaf762fbfcc2b872ff946b8329380c1b5027beca95d5eb896df531edcad6d6112eb727fca04cd29c56a4d150c5044da1e517a9d6bedf9d0034ac8
e592d42f27c80cfa2fbfcc2b872ff94648a1019f476a3d59e01e624e9f86e0458d035f869903d07923b782b3d6a37df1849ecbc04354eee5ef3bda0f5efd74ec
17173a93b5d1fbb38dc6150e9752de32c1b1f50e75f6f5b6926c6fdbafb1e09fbf1ee911780421dd62bbb90c8b38c8c6fd9a2becc130d00e3c70b925a8f40333
e644fc3843e7ff1ba8e8388dc297d93f834791e404569ff2ec4c51c47cf3086d9a53f621d078265f849ecbc04354eee50c244b33d66a4dbbf73fae6ac3206d12
c099fcafedf626e82fbfcc2b872ff946972ca6402370cca8968627a9c243c1b87d04e00c1edc484da5cdf8344be88fe9d80b8ceba7fb15dc2c25801dee759c19
10f3976c5c6501075aff51a4f4c1c48b394fb82571c6b623c020128e6554649875963efd3ee34e16b03201548283802035a46daa422b2784756dacbeca4bc899
0e753b1abe96382df467148f06ca8e4362bbb90c8b38c8c6fd9a2becc130d00ec8191fba26d9abdc8d8c4bc1ad4097af24783fdc7f2d1e6a117b80da7ea5bfc5
f637050c6a74cba94a749c3c8ff77c97eb07cc0905ad0715dbbb4873b80dadf499c9797bed114ded875273e0e138502f806605d94e5e00441fc8f66163d0baab
8318958aa75d4556dad4b7980b83d60c849ecbc04354eee50c244b33d66a4dbbf500007e998e98bc7de9f24dc503a6ba88a5e6dc5f17b834b8db8b843486ff7e
bbf0a766f49a242c2637e9cac2aa5cea2cecad1ebf804c4bf467148f06ca8e4362bbb90c8b38c8c6fd9a2becc130d00ec8191fba26d9abdccd16c311377fd79c
797d9b6fb9defb77ef18b0d89acfb785acecbbdda58bc05a188e19609068a8089c6130a6298f9a49baa78b47fb353ab3a56fafa397f88c67ea00c3bdc7b7021a
c8b26abae1e9b20f2fbfcc2b872ff94685673a45347ae2bae53c4beaf90ff6359c6130a6298f9a49baa78b47fb353ab3a56fafa397f88c67ea00c3bdc7b7021a
35e2326f7d1fd3902fbfcc2b872ff946475c1298b89e1c74d1add0b4efd851046b9a7e6540342fac75963efd3ee34e16b032015482838020ac6ea58c6af07d1d
d24b51ea77d68888849ecbc04354eee50c244b33d66a4dbbf500007e998e98bc7de9f24dc503a6ba88a5e6dc5f17b83469be4c2603c151c836dce5663cd3e059