**$ENCRYPTED_LIB
**$INTERFACE
***
*$
*  TPS72301 Model
*****************************************************************************
*  (C) Copyright 2013 Texas Instruments Incorporated. All rights reserved.
*****************************************************************************
** This model is designed as an aid for customers of Texas Instruments.
** TI and its licensors and suppliers make no warrenties, either expressed
** or implied, with respect to this model, including the warranties of 
** merchantability or fitness for a particular purpose.  The model is
** provided solely on an "as is" basis.  The entire risk as to its quality
** and performance is with the customer
*****************************************************************************
*
** Released by: WEBENCH(R) Design Center, Texas Instruments Inc.
* Part: TPS72301
* Date: 05/01/2013
* Model Type: TRANSIENT
* Simulator: PSPICE
* Simulator Version: 16.2
* EVM Order Number: 
* EVM Users Guide: 
* Datasheet: SLVS346B - SEPTEMBER 2003 - REVISED JULY 2007
*
* Model Version: Final 1.00
*
*****************************************************************************
*
* Updates:
*
* Final 1.00
* Release to Web.
*
*****************************************************************************
* source LDO_Create.php - TPS72301

.SUBCKT TPS72301 GND IN EN FB OUT
$CDNENCSTART
eee8c5c7a2bc4b01f045f303678664e7916da0bae22e8cb0bba041dd67c69ce448ea70148a9ac1670c8926c1ac5057c8ccfcd77bf87ca9dcb99005ff91d70d87
917b9156cc313aad2d0e0f65bdf697e7e5a9724dc2ac56319b774b31d5f594943dbca5a3950098163359e2fcb5c5d25294e7d3e537b2d24b2a9cb66837ed6e6c
a978e94c36773adb16f765d2c4154084fab4a80bdcf5258648145cafb30cf2c5c5cde9df59495bc4514f8f6c9fed87fef17a5f503252eb1bedc63987de939adb
3d273c855c384f492a860cedf8de389f124c739a866dc486fab4a80bdcf5258648145cafb30cf2c5c5cde9df59495bc4514f8f6c9fed87fee90748397c2ce2d0
48bda7b295ccf92ea304c3568357f8ba641d3019da38fe06fab4a80bdcf5258648145cafb30cf2c5c5cde9df59495bc4514f8f6c9fed87fee90748397c2ce2d0
d4b05e5c8edb5c3e3b68110039018327cdbbb8dee9959017fab4a80bdcf5258648145cafb30cf2c5c5cde9df59495bc4514f8f6c9fed87fee90748397c2ce2d0
b664d6c2dc5973471b2661c32b6e1072641d3019da38fe06fab4a80bdcf5258648145cafb30cf2c5c5cde9df59495bc4514f8f6c9fed87fee90748397c2ce2d0
81e028c307309728d098e53d39d1e8f5cdbbb8dee9959017fab4a80bdcf5258648145cafb30cf2c5c5cde9df59495bc4514f8f6c9fed87fee90748397c2ce2d0
86afbc1aee22ff37b609506edf4525b5710f626c2faf14a6fab4a80bdcf5258648145cafb30cf2c5c5cde9df59495bc4514f8f6c9fed87fee90748397c2ce2d0
2fe647370cec69fd0bca9faca70c7814303d7240d8c3139dfab4a80bdcf5258648145cafb30cf2c5c5cde9df59495bc4514f8f6c9fed87fee90748397c2ce2d0
a2e6125a7805e457e6275e4d0458de0887a9cb121b6901b13359e2fcb5c5d25294e7d3e537b2d24b0cd3f5801dfb843978f723a0514f6ffed1573906d7c1ac9f
5b6581ea2a67035e492da3d5834949fc77b4d6ad25ce33233359e2fcb5c5d25294e7d3e537b2d24b0cd3f5801dfb843978f723a0514f6ffed1573906d7c1ac9f
d3901b402aa5d89ecc462ceb76b6955f87a9cb121b6901b13359e2fcb5c5d25294e7d3e537b2d24b0cd3f5801dfb843978f723a0514f6ffed1573906d7c1ac9f
ac4742fca34d6946da13f1907567a35f303d7240d8c3139dfab4a80bdcf5258648145cafb30cf2c5c5cde9df59495bc4514f8f6c9fed87fee90748397c2ce2d0
765e5d0d1ce548046ccaca4739107a65303d7240d8c3139dfab4a80bdcf5258648145cafb30cf2c5c5cde9df59495bc4514f8f6c9fed87fee90748397c2ce2d0
cbb3372c19ca9e300bca9faca70c78147d95e953ba5e607efab4a80bdcf5258648145cafb30cf2c5c5cde9df59495bc4514f8f6c9fed87fee90748397c2ce2d0
$CDNENCFINISH
.ENDS TPS72301 

*$
.SUBCKT ldo_basic out vgnd vin bias enb fbk 
+ PARAMS: 
+ rinp = 1e07 
+ rout = 0.1
+ psrr = 5e-4
+ pole = 100
+ zero = 10e3
+ venb = 1.0
+ ehys = 0.1
+ uvlo = 2.0
+ uhys = 0.1
+ vref = 1.20
+ drop = 0.25
+ ilim = 0.10
+ ttrn = 1e-4
$CDNENCSTART
eee8c5c7a2bc4b01f045f303678664e7916da0bae22e8cb0bba041dd67c69ce448ea70148a9ac1670c8926c1ac5057c8ccfcd77bf87ca9dcb99005ff91d70d87
4347bbcc88b41045b2b2d6721565035c2e45f6e452ab621189dd6dc8f666b1ada8a34bef6abc514fb4a5e4d851f0d8efcf376f9f047de526ec9bfee68eba97da
10dd58ec17e5a0786707e5f36ffac0a442aa9af2062ac3be7c3f51e5b19c2df5696b928ce6283d9c893b25157d409d14099ea0cd4a13cf27b3c64737a9fac531
2feb1bcc3a286de53d910266d8071816a2e6d113cd56db76331293d1ae3a809aa6df48aae9c6a072c4f1f8c5a417a025d2b0d2c8ac28b8dc9d0e0290954c9481
9ff22e83ce8a9d15548368f9f97da0f5172cac7b9698ef38cfd44de642057e5af7133ba5369b1f54d67ee39d1dc34936e07a0ae3329c641b7b0d2a765ecdfdaa
dc7551175c78c79588edc3d0e1e5ff1089dd6dc8f666b1ada8a34bef6abc514fb4a5e4d851f0d8efcf376f9f047de52629182b81e5432b22ba32a48cc72d7a23
077982b14025c2f08310ae5a8769fe9d89dd6dc8f666b1ada8a34bef6abc514fb4a5e4d851f0d8efcf376f9f047de52629182b81e5432b22ba32a48cc72d7a23
9052d4ed4ff749103d910266d8071816c68cf5f7b3466d8789dc4da1d25de40c1d7c11391c055c0aa409bb87652d8d3872256be571e98d55091f93dcd2cfb489
c2356fa0b0fe3ea9fab4a80bdcf5258648145cafb30cf2c5c5cde9df59495bc4514f8f6c9fed87fef17a5f503252eb1be184136ebd9711691c26e06ca4992dd9
05b7e86e06388fb6e52281cf65977eb689dd6dc8f666b1ada8a34bef6abc514fb4a5e4d851f0d8efcf376f9f047de52629182b81e5432b22ba32a48cc72d7a23
13e3e41056ac947f8310ae5a8769fe9d89dd6dc8f666b1ada8a34bef6abc514fb4a5e4d851f0d8efcf376f9f047de52629182b81e5432b22ba32a48cc72d7a23
4eeda04684ae69b3ab70bfde9f21045ef00f783d0aa23958cb0ef2300e435e156351fa91ab189f03acc013980ce440cb4ba26d6d09bed35529b025a2638738f3
890c2f699597470ef7967f172341ce3ae728fe5f898089f7c412cfc4c3a2032c170549096205fc1c6fb399732bef73fe893b25157d409d1498151f6ad8b08f92
5ec39dc1d78a143ec286bf32a6587ea6c314e2c5284449e7ae5379d7748492b8cfd44de642057e5af7133ba5369b1f54d67ee39d1dc349364a09703854fa351d
08b29e5331a63248a26df98864ddd0943a8d0e744922d2c201448fcf87f83f6a89dd6dc8f666b1ada8a34bef6abc514fb4a5e4d851f0d8eff6e2fd9339394fa7
dad24e348b9e51c6d0c74cef739ec370fe14e8ed893f8790893b25157d409d14099ea0cd4a13cf274bbe173a177da40d3d399bb3315aa82426b1431033f7b5c2
df35ada287e444dd101926e1075e027e74f0f18d77ab6f4842e25fd16a755095492a808ed039b20c8a006828b44094ffceaba08124e51d798d1bc1e6191f744e
b0377cc99e8ecd1fd8e1621f0118518589dd6dc8f666b1ada8a34bef6abc514fb4a5e4d851f0d8efcf376f9f047de52629182b81e5432b22ba32a48cc72d7a23
ef79812fcc22557b8310ae5a8769fe9d89dd6dc8f666b1ada8a34bef6abc514fb4a5e4d851f0d8efcf376f9f047de52629182b81e5432b22ba32a48cc72d7a23
271111eb306401653d910266d8071816da565ab2036d72473359e2fcb5c5d25294e7d3e537b2d24b0cd3f5801dfb843978f723a0514f6ffed1573906d7c1ac9f
5d078000650a8fa5685b7bc8c0831cdfd8b2076f5e4f49ec71ae9d0cd9ada0abbbdea5a4550989c63359e2fcb5c5d25294e7d3e537b2d24b2a9cb66837ed6e6c
d1e7e9412a94f9493ae849dd1fc86d078522d70c15897710608e5066341ff6bdfab4a80bdcf5258648145cafb30cf2c5c5cde9df59495bc4e883fd66f9b8889d
ba6db248664c784dc319f305c755bbfe99cf6f808d5eafb6b1b3181b57e6861a12220278753157d4cfd44de642057e5af7133ba5369b1f5488baa10938d8c4c1
c99f8f686938f4fbd0c74cef739ec370f00f783d0aa23958cb0ef2300e435e156351fa91ab189f03acc013980ce440cb4ba26d6d09bed35529b025a2638738f3
5d078000650a8fa52f7cad50e243a0dc82552654fcb7cd69e1700bfdc95920e04d5b1b73307b13033359e2fcb5c5d25294e7d3e537b2d24b2a9cb66837ed6e6c
90f100f4762f2796d059377edaf6dd8749e55ab1837a5230893b25157d409d14099ea0cd4a13cf274bbe173a177da40d3d399bb3315aa82426b1431033f7b5c2
6c8b77809538ee2d1e4eefec997379d036806a8e381bf9a0dd6f980417efc63e3d63359eca55553ea581bf0ddd750ad2e97e759b977b61b137229311b2fd2cce
0276db0c44019a32c303870da281d73b89dd6dc8f666b1ada8a34bef6abc514fb4a5e4d851f0d8efcf376f9f047de52629182b81e5432b22ba32a48cc72d7a23
$CDNENCFINISH
.ENDS ldo_basic

